previews/PR135/data/ACTIVSg10k/ACTIVSg10k.RAW
 0,    100.00, 33, 0, 0, 60.00       / October 27, 2017 16:06:46; Simulator Version 20; BuildDate 2017_10_19
This is a synthetic power system model that does NOT represent the actual grid. It was developed as part of the US ARPA-E Grid 
Data research project and contains no CEII. To reference the model development approach, use:
10001,'NEAH BAY 1  ', 138.0000,1,   1,   1,   1,1.01164091, -39.843601, 1.10000, 0.90000, 1.10000, 0.90000
10002,'FORKS 1     ', 138.0000,1,   1,   1,   1,1.01702523, -37.043319, 1.10000, 0.90000, 1.10000, 0.90000
10003,'OCEAN SHOR~1', 138.0000,1,   1,   1,   1,1.03144979, -34.039098, 1.10000, 0.90000, 1.10000, 0.90000
10004,'WESTPORT 1  ', 138.0000,1,   1,   1,   1,1.03245890, -33.926181, 1.10000, 0.90000, 1.10000, 0.90000
10005,'WESTPORT 2  ', 138.0000,1,   1,   1,   1,1.03240728, -33.932472, 1.10000, 0.90000, 1.10000, 0.90000
10006,'LONG BEACH~1', 138.0000,1,   1,   1,   1,1.02559149, -35.816631, 1.10000, 0.90000, 1.10000, 0.90000
10007,'LONG BEACH~2', 138.0000,1,   1,   1,   1,1.02564132, -35.808500, 1.10000, 0.90000, 1.10000, 0.90000
10008,'OCEAN PARK 1', 138.0000,1,   1,   1,   1,1.02431107, -34.741945, 1.10000, 0.90000, 1.10000, 0.90000
10009,'OCEAN PARK 2', 138.0000,1,   1,   1,   1,1.02424586, -34.751217, 1.10000, 0.90000, 1.10000, 0.90000
10010,'HOQUIAM 1   ', 138.0000,1,   1,   1,   1,1.02301991, -34.845812, 1.10000, 0.90000, 1.10000, 0.90000
10011,'PORT ANGEL~1', 138.0000,1,   1,   1,   1,1.00738585, -40.603607, 1.10000, 0.90000, 1.10000, 0.90000
10012,'ABERDEEN 1 1', 345.0000,1,   1,   1,   1,1.03543282, -32.265236, 1.10000, 0.90000, 1.10000, 0.90000
10013,'ABERDEEN 1 2', 138.0000,1,   1,   1,   1,1.02818918, -34.327066, 1.10000, 0.90000, 1.10000, 0.90000
10014,'MONTESANO 1 ', 138.0000,1,   1,   1,   1,1.02568781, -34.641169, 1.10000, 0.90000, 1.10000, 0.90000
10015,'MONTESANO 2 ', 138.0000,1,   1,   1,   1,1.02549648, -34.654276, 1.10000, 0.90000, 1.10000, 0.90000
10016,'RAYMOND 1   ', 138.0000,1,   1,   1,   1,1.02661371, -32.284026, 1.10000, 0.90000, 1.10000, 0.90000
10017,'RAYMOND 2   ', 138.0000,1,   1,   1,   1,1.02647007, -32.299268, 1.10000, 0.90000, 1.10000, 0.90000
10018,'ELMA 1 1    ', 138.0000,1,   1,   1,   1,1.03208947, -35.370083, 1.10000, 0.90000, 1.10000, 0.90000
10019,'PORT ANGEL~2', 345.0000,1,   1,   1,   1,1.03859198, -36.540822, 1.10000, 0.90000, 1.10000, 0.90000
10020,'PORT ANGEL~3', 138.0000,1,   1,   1,   1,1.01631761, -39.074648, 1.10000, 0.90000, 1.10000, 0.90000
10021,'CATHLAMET 1 ', 138.0000,1,   1,   1,   1,1.02711499, -31.899162, 1.10000, 0.90000, 1.10000, 0.90000
10022,'SHELTON 1 1 ', 138.0000,1,   1,   1,   1,1.04053748, -35.691867, 1.10000, 0.90000, 1.10000, 0.90000
10023,'SHELTON 2 1 ', 345.0000,1,   1,   1,   1,1.03239501, -33.232507, 1.10000, 0.90000, 1.10000, 0.90000
10024,'SHELTON 2 2 ', 138.0000,1,   1,   1,   1,1.04397738, -35.612975, 1.10000, 0.90000, 1.10000, 0.90000
10025,'ROCHESTER 1 ', 138.0000,1,   1,   1,   1,1.03333724, -32.720482, 1.10000, 0.90000, 1.10000, 0.90000
10026,'FRIDAY HAR~1', 138.0000,1,   1,   1,   1,1.01168239, -41.072888, 1.10000, 0.90000, 1.10000, 0.90000
10027,'SEQUIM 1 1  ', 138.0000,1,   1,   1,   1,1.00389969, -41.072380, 1.10000, 0.90000, 1.10000, 0.90000
10028,'SEQUIM 1 2  ', 138.0000,1,   1,   1,   1,1.00368977, -41.089376, 1.10000, 0.90000, 1.10000, 0.90000
10029,'SEQUIM 2 1  ', 138.0000,1,   1,   1,   1,1.00894773, -40.455572, 1.10000, 0.90000, 1.10000, 0.90000
10030,'OLYMPIA 1 1 ', 138.0000,1,   1,   1,   1,1.03723168, -35.052343, 1.10000, 0.90000, 1.10000, 0.90000
10031,'OLYMPIA 1 2 ', 138.0000,1,   1,   1,   1,1.03706515, -35.073684, 1.10000, 0.90000, 1.10000, 0.90000
10032,'OLYMPIA 2 1 ', 138.0000,1,   1,   1,   1,1.03075075, -36.117108, 1.10000, 0.90000, 1.10000, 0.90000
10033,'LONGVIEW 1 1', 138.0000,1,   1,   1,   1,1.01683795, -32.557944, 1.10000, 0.90000, 1.10000, 0.90000
10034,'LONGVIEW 2 1', 138.0000,1,   1,   1,   1,1.01567602, -32.426002, 1.10000, 0.90000, 1.10000, 0.90000
10035,'LONGVIEW 2 2', 138.0000,1,   1,   1,   1,1.01512957, -32.454757, 1.10000, 0.90000, 1.10000, 0.90000
10036,'LONGVIEW 2 3', 138.0000,1,   1,   1,   1,1.01631856, -32.393033, 1.10000, 0.90000, 1.10000, 0.90000
10037,'CHEHALIS 1 1', 138.0000,1,   1,   1,   1,1.03380334, -32.093126, 1.10000, 0.90000, 1.10000, 0.90000
10038,'OLYMPIA 3 1 ', 138.0000,1,   1,   1,   1,1.03567338, -36.400226, 1.10000, 0.90000, 1.10000, 0.90000
10039,'OLYMPIA 3 2 ', 138.0000,1,   1,   1,   1,1.03590906, -36.380951, 1.10000, 0.90000, 1.10000, 0.90000
10040,'OLYMPIA 4 1 ', 138.0000,1,   1,   1,   1,1.03023791, -37.084123, 1.10000, 0.90000, 1.10000, 0.90000
10041,'WINLOCK 1   ', 138.0000,1,   1,   1,   1,1.03232288, -31.342345, 1.10000, 0.90000, 1.10000, 0.90000
10042,'CENTRALIA ~1', 138.0000,1,   1,   1,   1,1.03289354, -33.190058, 1.10000, 0.90000, 1.10000, 0.90000
10043,'BELFAIR 1   ', 138.0000,1,   1,   1,   1,1.02180612, -38.811020, 1.10000, 0.90000, 1.10000, 0.90000
10044,'BELFAIR 2   ', 138.0000,1,   1,   1,   1,1.02169991, -38.834830, 1.10000, 0.90000, 1.10000, 0.90000
10045,'CASTLE ROC~1', 138.0000,1,   1,   1,   1,1.02278435, -32.151261, 1.10000, 0.90000, 1.10000, 0.90000
10046,'OLYMPIA 5 1 ', 138.0000,1,   1,   1,   1,1.02228808, -34.513711, 1.10000, 0.90000, 1.10000, 0.90000
10047,'OLYMPIA 5 2 ', 138.0000,1,   1,   1,   1,1.02213049, -34.538300, 1.10000, 0.90000, 1.10000, 0.90000
10048,'OLYMPIA 6 1 ', 138.0000,1,   1,   1,   1,1.02263761, -34.487889, 1.10000, 0.90000, 1.10000, 0.90000
10049,'OLYMPIA 6 2 ', 138.0000,1,   1,   1,   1,1.02284765, -34.462782, 1.10000, 0.90000, 1.10000, 0.90000
10050,'OLYMPIA 6 3 ', 138.0000,1,   1,   1,   1,1.02263761, -34.487889, 1.10000, 0.90000, 1.10000, 0.90000
10051,'EASTSOUND 1 ', 138.0000,1,   1,   1,   1,1.01364982, -40.814997, 1.10000, 0.90000, 1.10000, 0.90000
10052,'EASTSOUND 2 ', 138.0000,1,   1,   1,   1,1.01358175, -40.825957, 1.10000, 0.90000, 1.10000, 0.90000
10053,'OLYMPIA 7 1 ', 138.0000,1,   1,   1,   1,1.02690649, -33.681630, 1.10000, 0.90000, 1.10000, 0.90000
10054,'PORT TOWNS~1', 138.0000,1,   1,   1,   1,1.00466013, -41.058555, 1.10000, 0.90000, 1.10000, 0.90000
10055,'TENINO 1    ', 138.0000,1,   1,   1,   1,1.02672672, -34.746928, 1.10000, 0.90000, 1.10000, 0.90000
10056,'TENINO 2    ', 138.0000,1,   1,   1,   1,1.02682889, -34.738069, 1.10000, 0.90000, 1.10000, 0.90000
10057,'LACEY 1 1   ', 345.0000,1,   1,   1,   1,1.03095448, -32.301317, 1.10000, 0.90000, 1.10000, 0.90000
10058,'LACEY 1 2   ', 138.0000,1,   1,   1,   1,1.02230895, -34.670768, 1.10000, 0.90000, 1.10000, 0.90000
10059,'LACEY 1 3   ', 345.0000,1,   1,   1,   1,1.03172219, -32.205261, 1.10000, 0.90000, 1.10000, 0.90000
10060,'LACEY 2 1   ', 138.0000,1,   1,   1,   1,1.02005553, -34.755575, 1.10000, 0.90000, 1.10000, 0.90000
10061,'OLYMPIA 8 1 ', 138.0000,1,   1,   1,   1,1.02612686, -38.072957, 1.10000, 0.90000, 1.10000, 0.90000
10062,'BREMERTON ~1', 138.0000,1,   1,   1,   1,1.02061141, -39.869850, 1.10000, 0.90000, 1.10000, 0.90000
10063,'BREMERTON ~2', 138.0000,1,   1,   1,   1,1.02079451, -39.850746, 1.10000, 0.90000, 1.10000, 0.90000
10064,'BREMERTON ~3', 138.0000,1,   1,   1,   1,1.02041507, -39.891010, 1.10000, 0.90000, 1.10000, 0.90000
10065,'BREMERTON ~4', 138.0000,1,   1,   1,   1,1.01978827, -39.702988, 1.10000, 0.90000, 1.10000, 0.90000
10066,'BREMERTON ~5',  13.8000,1,   1,   1,   1,1.01978827, -39.702988, 1.10000, 0.90000, 1.10000, 0.90000
10067,'BREMERTON ~6',  13.8000,1,   1,   1,   1,1.01978827, -39.702988, 1.10000, 0.90000, 1.10000, 0.90000
10069,'KELSO 1     ', 138.0000,1,   1,   1,   1,1.01275253, -33.015072, 1.10000, 0.90000, 1.10000, 0.90000
10070,'LAKEBAY 1 1 ', 138.0000,1,   1,   1,   1,1.02411377, -39.019208, 1.10000, 0.90000, 1.10000, 0.90000
10071,'OLYMPIA 9 1 ', 138.0000,1,   1,   1,   1,1.02578914, -35.009419, 1.10000, 0.90000, 1.10000, 0.90000
10072,'OLYMPIA 10 1', 138.0000,1,   1,   1,   1,1.02008450, -35.099512, 1.10000, 0.90000, 1.10000, 0.90000
10073,'OLYMPIA 10 2', 138.0000,1,   1,   1,   1,1.01974690, -35.120208, 1.10000, 0.90000, 1.10000, 0.90000
10074,'KALAMA 1    ', 138.0000,1,   1,   1,   1,1.01425791, -33.366167, 1.10000, 0.90000, 1.10000, 0.90000
10075,'KALAMA 2    ', 138.0000,1,   1,   1,   1,1.01417458, -33.374568, 1.10000, 0.90000, 1.10000, 0.90000
10076,'GIG HARBOR~1', 138.0000,1,   1,   1,   1,1.02450812, -38.174504, 1.10000, 0.90000, 1.10000, 0.90000
10077,'VANCOUVER ~1', 138.0000,1,   1,   1,   1,1.02632403, -34.860029, 1.10000, 0.90000, 1.10000, 0.90000
10078,'SILVERDALE~1', 345.0000,1,   1,   1,   1,1.03239632, -34.304646, 1.10000, 0.90000, 1.10000, 0.90000
10079,'SILVERDALE~2', 138.0000,1,   1,   1,   1,1.02239180, -38.194636, 1.10000, 0.90000, 1.10000, 0.90000
10080,'SILVERDALE~3',  24.0000,1,   1,   1,   1,1.01645017, -43.758751, 1.10000, 0.90000, 1.10000, 0.90000
10082,'SILVERDALE~5', 138.0000,1,   1,   1,   1,1.02018428, -39.061951, 1.10000, 0.90000, 1.10000, 0.90000
10083,'SILVERDALE~6', 138.0000,1,   1,   1,   1,1.02003169, -39.073654, 1.10000, 0.90000, 1.10000, 0.90000
10084,'BLAINE 1 1  ', 138.0000,1,   1,   1,   1,1.02994585, -38.147505, 1.10000, 0.90000, 1.10000, 0.90000
10085,'BLAINE 1 2  ', 138.0000,1,   1,   1,   1,1.02978873, -38.172811, 1.10000, 0.90000, 1.10000, 0.90000
10086,'BLAINE 1 3  ', 138.0000,1,   1,   1,   1,1.03008544, -38.125976, 1.10000, 0.90000, 1.10000, 0.90000
10087,'PORT LUDLO~1', 138.0000,1,   1,   1,   1,1.01595068, -39.839459, 1.10000, 0.90000, 1.10000, 0.90000
10088,'PORT ORCHA~1', 138.0000,1,   1,   1,   1,1.02938282, -39.374080, 1.10000, 0.90000, 1.10000, 0.90000
10089,'PORT ORCHA~2', 138.0000,1,   1,   1,   1,1.02925503, -39.393690, 1.10000, 0.90000, 1.10000, 0.90000
10090,'PORT ORCHA~3', 138.0000,1,   1,   1,   1,1.02390850, -39.445411, 1.10000, 0.90000, 1.10000, 0.90000
10091,'RIDGEFIELD 1', 138.0000,1,   1,   1,   1,1.02571547, -33.716737, 1.10000, 0.90000, 1.10000, 0.90000
10092,'VANCOUVER~18', 138.0000,1,   1,   1,   1,1.02517867, -34.967720, 1.10000, 0.90000, 1.10000, 0.90000
10093,'VANCOUVER~19', 138.0000,1,   1,   1,   1,1.02417159, -35.703977, 1.10000, 0.90000, 1.10000, 0.90000
10094,'STEILACOOM 1', 138.0000,1,   1,   1,   1,1.02454245, -38.368017, 1.10000, 0.90000, 1.10000, 0.90000
10095,'STEILACOOM 2', 138.0000,1,   1,   1,   1,1.02462876, -38.358100, 1.10000, 0.90000, 1.10000, 0.90000
10096,'STEILACOOM 3', 138.0000,1,   1,   1,   1,1.02446127, -38.377860, 1.10000, 0.90000, 1.10000, 0.90000
10097,'WOODLAND 1 1', 138.0000,1,   1,   1,   1,1.02666020, -34.230128, 1.10000, 0.90000, 1.10000, 0.90000
10098,'DUPONT 1    ', 138.0000,1,   1,   1,   1,1.02170682, -35.309705, 1.10000, 0.90000, 1.10000, 0.90000
10099,'DUPONT 2    ', 138.0000,1,   1,   1,   1,1.02182567, -35.298216, 1.10000, 0.90000, 1.10000, 0.90000
10100,'VANCOUVER~20', 138.0000,1,   1,   1,   1,1.03389549, -35.540865, 1.10000, 0.90000, 1.10000, 0.90000
10101,'VANCOUVER~21', 138.0000,1,   1,   1,   1,1.03405070, -35.522830, 1.10000, 0.90000, 1.10000, 0.90000
10102,'VANCOUVER~22', 138.0000,1,   1,   1,   1,1.03371263, -35.560748, 1.10000, 0.90000, 1.10000, 0.90000
10103,'VANCOUVER~23', 138.0000,1,   1,   1,   1,1.02840281, -35.422526, 1.10000, 0.90000, 1.10000, 0.90000
10104,'VANCOUVER~24', 138.0000,1,   1,   1,   1,1.02806485, -35.452356, 1.10000, 0.90000, 1.10000, 0.90000
10105,'VANCOUVER~25', 138.0000,1,   1,   1,   1,1.02873123, -35.389823, 1.10000, 0.90000, 1.10000, 0.90000
10106,'ANACORTES ~1', 138.0000,1,   1,   1,   1,1.01921427, -39.776460, 1.10000, 0.90000, 1.10000, 0.90000
10107,'COUPEVILLE 1', 138.0000,1,   1,   1,   1,1.02458513, -37.648532, 1.10000, 0.90000, 1.10000, 0.90000
10108,'COUPEVILLE 2', 138.0000,1,   1,   1,   1,1.02466154, -37.631603, 1.10000, 0.90000, 1.10000, 0.90000
10109,'COUPEVILLE 3', 138.0000,1,   1,   1,   1,1.02458513, -37.648532, 1.10000, 0.90000, 1.10000, 0.90000
10110,'ONALASKA 1  ', 138.0000,1,   1,   1,   1,1.03115606, -33.816420, 1.10000, 0.90000, 1.10000, 0.90000
10111,'ONALASKA 2  ', 138.0000,1,   1,   1,   1,1.03122854, -33.809593, 1.10000, 0.90000, 1.10000, 0.90000
10112,'RAINIER 1 1 ', 138.0000,1,   1,   1,   1,1.02779424, -34.460855, 1.10000, 0.90000, 1.10000, 0.90000
10113,'BREMERTON ~8', 138.0000,1,   1,   1,   1,1.02596366, -38.991282, 1.10000, 0.90000, 1.10000, 0.90000
10114,'BREMERTON ~9', 138.0000,1,   1,   1,   1,1.02574801, -39.008559, 1.10000, 0.90000, 1.10000, 0.90000
10115,'BREMERTON~10', 138.0000,1,   1,   1,   1,1.02516270, -38.961182, 1.10000, 0.90000, 1.10000, 0.90000
10116,'OAK HARBOR~1', 138.0000,1,   1,   1,   1,1.03621352, -33.812278, 1.10000, 0.90000, 1.10000, 0.90000
10117,'OAK HARBOR~2', 345.0000,1,   1,   1,   1,1.03711677, -29.973998, 1.10000, 0.90000, 1.10000, 0.90000
10118,'OAK HARBOR~3', 138.0000,1,   1,   1,   1,1.03609562, -33.838936, 1.10000, 0.90000, 1.10000, 0.90000
10119,'OAK HARBOR~4',  13.8000,1,   1,   1,   1,1.03623986, -34.197278, 1.10000, 0.90000, 1.10000, 0.90000
10121,'POULSBO 1 1 ', 138.0000,1,   1,   1,   1,1.01779151, -38.974238, 1.10000, 0.90000, 1.10000, 0.90000
10122,'POULSBO 1 2 ', 138.0000,1,   1,   1,   1,1.01749885, -38.994028, 1.10000, 0.90000, 1.10000, 0.90000
10123,'POULSBO 2 1 ', 138.0000,1,   1,   1,   1,1.01872003, -38.794750, 1.10000, 0.90000, 1.10000, 0.90000
10124,'POULSBO 2 2 ', 138.0000,1,   1,   1,   1,1.01887131, -38.773024, 1.10000, 0.90000, 1.10000, 0.90000
10125,'POULSBO 2 3 ', 138.0000,1,   1,   1,   1,1.01856315, -38.816167, 1.10000, 0.90000, 1.10000, 0.90000
10126,'POULSBO 2 4 ', 138.0000,1,   1,   1,   1,1.01872003, -38.794750, 1.10000, 0.90000, 1.10000, 0.90000
10127,'BREMERTON~11', 345.0000,1,   1,   1,   1,1.01940548, -34.785477, 1.10000, 0.90000, 1.10000, 0.90000
10128,'BREMERTON~12', 138.0000,1,   1,   1,   1,1.03492713, -38.678306, 1.10000, 0.90000, 1.10000, 0.90000
10129,'VANCOUVER~26', 138.0000,1,   1,   1,   1,1.03466296, -35.348336, 1.10000, 0.90000, 1.10000, 0.90000
10130,'VANCOUVER~27', 138.0000,1,   1,   1,   1,1.02119839, -35.084541, 1.10000, 0.90000, 1.10000, 0.90000
10131,'VANCOUVER~28', 138.0000,1,   1,   1,   1,1.02875519, -35.358407, 1.10000, 0.90000, 1.10000, 0.90000
10132,'VANCOUVER~29', 138.0000,1,   1,   1,   1,1.02851570, -35.382846, 1.10000, 0.90000, 1.10000, 0.90000
10133,'GIG HARBOR~2', 138.0000,1,   1,   1,   1,1.02426362, -38.318840, 1.10000, 0.90000, 1.10000, 0.90000
10134,'GIG HARBOR~3', 138.0000,1,   1,   1,   1,1.02398634, -38.357530, 1.10000, 0.90000, 1.10000, 0.90000
10135,'FERNDALE 1 1', 138.0000,1,   1,   1,   1,1.03122056, -37.929885, 1.10000, 0.90000, 1.10000, 0.90000
10136,'FERNDALE 1 2', 138.0000,1,   1,   1,   1,1.03152299, -37.894016, 1.10000, 0.90000, 1.10000, 0.90000
10137,'LA CENTER 1 ', 138.0000,1,   1,   1,   1,1.02587295, -34.068553, 1.10000, 0.90000, 1.10000, 0.90000
10138,'GIG HARBOR~4', 138.0000,1,   1,   1,   1,1.02453160, -39.476171, 1.10000, 0.90000, 1.10000, 0.90000
10139,'TACOMA 1 1  ', 138.0000,1,   1,   1,   1,1.05950427, -36.369371, 1.10000, 0.90000, 1.10000, 0.90000
10140,'PORT ORCHA~4', 138.0000,1,   1,   1,   1,1.02057421, -38.999096, 1.10000, 0.90000, 1.10000, 0.90000
10141,'PORT ORCHA~5', 138.0000,1,   1,   1,   1,1.02028322, -39.022623, 1.10000, 0.90000, 1.10000, 0.90000
10142,'PORT ORCHA~6', 138.0000,1,   1,   1,   1,1.01750767, -39.266949, 1.10000, 0.90000, 1.10000, 0.90000
10143,'PORT ORCHA~7', 138.0000,1,   1,   1,   1,1.01762581, -39.241298, 1.10000, 0.90000, 1.10000, 0.90000
10144,'PORT ORCHA~8', 138.0000,1,   1,   1,   1,1.01750767, -39.266949, 1.10000, 0.90000, 1.10000, 0.90000
10145,'VANCOUVER~30', 138.0000,1,   1,   1,   1,1.01917434, -34.509340, 1.10000, 0.90000, 1.10000, 0.90000
10146,'VANCOUVER ~2', 138.0000,1,   1,   1,   1,1.01984859, -35.015836, 1.10000, 0.90000, 1.10000, 0.90000
10147,'VANCOUVER ~3', 138.0000,1,   1,   1,   1,1.02004170, -34.993252, 1.10000, 0.90000, 1.10000, 0.90000
10148,'VANCOUVER ~4', 138.0000,1,   1,   1,   1,1.02605689, -35.392695, 1.10000, 0.90000, 1.10000, 0.90000
10149,'OLALLA 1    ', 138.0000,1,   1,   1,   1,1.02544749, -39.581735, 1.10000, 0.90000, 1.10000, 0.90000
10150,'OLALLA 2    ',  18.0000,1,   1,   1,   1,1.01680541, -40.400753, 1.10000, 0.90000, 1.10000, 0.90000
10151,'OLALLA 3    ',  18.0000,1,   1,   1,   1,1.02179003, -40.727861, 1.10000, 0.90000, 1.10000, 0.90000
10153,'UNIVERSITY~1', 138.0000,1,   1,   1,   1,1.02414393, -35.521611, 1.10000, 0.90000, 1.10000, 0.90000
10154,'LAKEWOOD 1 1', 138.0000,1,   1,   1,   1,1.05801547, -36.510185, 1.10000, 0.90000, 1.10000, 0.90000
10155,'LAKEWOOD 2 1', 138.0000,1,   1,   1,   1,1.02211738, -35.479841, 1.10000, 0.90000, 1.10000, 0.90000
10156,'LAKEWOOD 2 2', 138.0000,1,   1,   1,   1,1.02198803, -35.499119, 1.10000, 0.90000, 1.10000, 0.90000
10157,'TACOMA 2 1  ', 138.0000,1,   1,   1,   1,1.03660846, -38.691662, 1.10000, 0.90000, 1.10000, 0.90000
10158,'TACOMA 2 2  ', 138.0000,1,   1,   1,   1,1.03582215, -38.662842, 1.10000, 0.90000, 1.10000, 0.90000
10159,'TACOMA 3 1  ', 138.0000,1,   1,   1,   1,1.02909625, -38.622227, 1.10000, 0.90000, 1.10000, 0.90000
10160,'BAINBRIDGE~1', 138.0000,1,   1,   1,   1,1.01438355, -39.131011, 1.10000, 0.90000, 1.10000, 0.90000
10161,'KINGSTON 1  ', 138.0000,1,   1,   1,   1,1.02212083, -41.464357, 1.10000, 0.90000, 1.10000, 0.90000
10162,'KINGSTON 2  ', 138.0000,1,   1,   1,   1,1.02198458, -41.479493, 1.10000, 0.90000, 1.10000, 0.90000
10163,'KINGSTON 3  ', 138.0000,1,   1,   1,   1,1.02224624, -41.450147, 1.10000, 0.90000, 1.10000, 0.90000
10164,'ROY 1 1     ', 138.0000,1,   1,   1,   1,1.02381432, -35.618255, 1.10000, 0.90000, 1.10000, 0.90000
10165,'TACOMA 4 1  ', 138.0000,1,   1,   1,   1,1.01638830, -39.773844, 1.10000, 0.90000, 1.10000, 0.90000
10166,'TACOMA 4 2  ', 138.0000,1,   1,   1,   1,1.01620352, -39.803843, 1.10000, 0.90000, 1.10000, 0.90000
10167,'VANCOUVER ~5', 138.0000,1,   1,   1,   1,1.03816330, -35.103535, 1.10000, 0.90000, 1.10000, 0.90000
10168,'VANCOUVER ~6', 138.0000,1,   1,   1,   1,1.03169727, -35.311607, 1.10000, 0.90000, 1.10000, 0.90000
10169,'LAKEWOOD 3 1', 138.0000,1,   1,   1,   1,1.02587998, -35.733084, 1.10000, 0.90000, 1.10000, 0.90000
10170,'LAKEWOOD 3 2', 138.0000,1,   1,   1,   1,1.02583325, -35.741174, 1.10000, 0.90000, 1.10000, 0.90000
10171,'TACOMA 5 1  ', 138.0000,1,   1,   1,   1,1.01902258, -38.613559, 1.10000, 0.90000, 1.10000, 0.90000
10172,'BATTLE GRO~1', 138.0000,1,   1,   1,   1,1.02279842, -34.045764, 1.10000, 0.90000, 1.10000, 0.90000
10173,'BATTLE GRO~2', 138.0000,1,   1,   1,   1,1.02295685, -34.021428, 1.10000, 0.90000, 1.10000, 0.90000
10174,'BATTLE GRO~3', 138.0000,1,   1,   1,   1,1.02263176, -34.071842, 1.10000, 0.90000, 1.10000, 0.90000
10175,'BATTLE GRO~4', 138.0000,1,   1,   1,   1,1.02433980, -33.404556, 1.10000, 0.90000, 1.10000, 0.90000
10176,'BATTLE GRO~5', 138.0000,1,   1,   1,   1,1.02459276, -33.379988, 1.10000, 0.90000, 1.10000, 0.90000
10177,'VANCOUVER ~7', 138.0000,1,   1,   1,   1,1.03878462, -34.873805, 1.10000, 0.90000, 1.10000, 0.90000
10178,'VANCOUVER ~8', 138.0000,1,   1,   1,   1,1.02325118, -35.187731, 1.10000, 0.90000, 1.10000, 0.90000
10179,'BELLINGHAM~1', 138.0000,1,   1,   1,   1,1.03097880, -38.077905, 1.10000, 0.90000, 1.10000, 0.90000
10180,'BELLINGHAM~2', 138.0000,1,   1,   1,   1,1.03099442, -37.885482, 1.10000, 0.90000, 1.10000, 0.90000
10181,'BELLINGHAM~3', 138.0000,1,   1,   1,   1,1.03116715, -37.855067, 1.10000, 0.90000, 1.10000, 0.90000
10182,'BELLINGHAM~4', 138.0000,1,   1,   1,   1,1.03083169, -37.918543, 1.10000, 0.90000, 1.10000, 0.90000
10183,'LAKEWOOD 4 1', 138.0000,1,   1,   1,   1,1.02147865, -38.544158, 1.10000, 0.90000, 1.10000, 0.90000
10184,'LAKEWOOD 5 1', 138.0000,1,   1,   1,   1,1.03917336, -38.350566, 1.10000, 0.90000, 1.10000, 0.90000
10185,'LAKEWOOD 5 2', 138.0000,1,   1,   1,   1,1.03868198, -38.387617, 1.10000, 0.90000, 1.10000, 0.90000
10186,'CAMANO ISL~1', 138.0000,1,   1,   1,   1,1.02960908, -35.492641, 1.10000, 0.90000, 1.10000, 0.90000
10187,'CAMANO ISL~2', 138.0000,1,   1,   1,   1,1.02943039, -35.513367, 1.10000, 0.90000, 1.10000, 0.90000
10188,'YELM 1      ', 138.0000,1,   1,   1,   1,1.03072166, -33.162378, 1.10000, 0.90000, 1.10000, 0.90000
10189,'YELM 2      ', 138.0000,1,   1,   1,   1,1.03105247, -33.132025, 1.10000, 0.90000, 1.10000, 0.90000
10190,'VANCOUVER ~9', 138.0000,1,   1,   1,   1,1.01996219, -34.306138, 1.10000, 0.90000, 1.10000, 0.90000
10191,'VANCOUVER~10', 138.0000,1,   1,   1,   1,1.01971138, -34.344261, 1.10000, 0.90000, 1.10000, 0.90000
10192,'VANCOUVER~11', 345.0000,1,   1,   1,   1,1.00975323, -32.008879, 1.10000, 0.90000, 1.10000, 0.90000
10193,'VANCOUVER~12', 138.0000,1,   1,   1,   1,1.01887441, -34.672168, 1.10000, 0.90000, 1.10000, 0.90000
10194,'VANCOUVER~13',  24.0000,1,   1,   1,   1,1.01887095, -34.671273, 1.10000, 0.90000, 1.10000, 0.90000
10196,'TACOMA 6 1  ', 345.0000,1,   1,   1,   1,1.03651297, -32.165946, 1.10000, 0.90000, 1.10000, 0.90000
10197,'TACOMA 6 2  ', 138.0000,1,   1,   1,   1,1.06355464, -35.997317, 1.10000, 0.90000, 1.10000, 0.90000
10198,'TACOMA 6 3  ', 345.0000,1,   1,   1,   1,1.03606796, -32.192758, 1.10000, 0.90000, 1.10000, 0.90000
10199,'VASHON 1    ', 138.0000,1,   1,   1,   1,1.01780391, -39.788113, 1.10000, 0.90000, 1.10000, 0.90000
10200,'TACOMA 7 1  ', 138.0000,1,   1,   1,   1,1.02213919, -38.849074, 1.10000, 0.90000, 1.10000, 0.90000
10201,'LYNDEN 1    ', 138.0000,1,   1,   1,   1,1.02848196, -37.285627, 1.10000, 0.90000, 1.10000, 0.90000
10202,'BRUSH PRAI~1', 138.0000,1,   1,   1,   1,1.02624071, -35.473749, 1.10000, 0.90000, 1.10000, 0.90000
10203,'LANGLEY 1   ', 138.0000,1,   1,   1,   1,1.02325034, -39.688542, 1.10000, 0.90000, 1.10000, 0.90000
10204,'LANGLEY 2   ', 138.0000,1,   1,   1,   1,1.02319026, -39.696404, 1.10000, 0.90000, 1.10000, 0.90000
10205,'TACOMA 8 1  ', 138.0000,1,   1,   1,   1,1.02190781, -37.002328, 1.10000, 0.90000, 1.10000, 0.90000
...
0 / END OF BUS DATA, BEGIN LOAD DATA
10001,'1 ',1,   1,   1,     9.636,     2.537,     0.000,     0.000,     0.000,     0.000,   1,1
10002,'1 ',1,   1,   1,    15.026,     5.922,     0.000,     0.000,     0.000,     0.000,   1,1
10002,'2 ',1,   1,   1,     0.955,     0.116,     0.000,     0.000,     0.000,     0.000,   1,1
10003,'1 ',1,   1,   1,    13.882,     0.942,     0.000,     0.000,     0.000,     0.000,   1,1
10003,'2 ',1,   1,   1,     0.506,     0.152,     0.000,     0.000,     0.000,     0.000,   1,1
10005,'1 ',1,   1,   1,     7.001,     1.546,     0.000,     0.000,     0.000,     0.000,   1,1
10005,'2 ',1,   1,   1,     3.446,     1.199,     0.000,     0.000,     0.000,     0.000,   1,1
10006,'1 ',1,   1,   1,    13.442,     1.280,     0.000,     0.000,     0.000,     0.000,   1,1
10009,'1 ',1,   1,   1,    16.822,     2.594,     0.000,     0.000,     0.000,     0.000,   1,1
10010,'1 ',1,   1,   1,    33.492,    15.145,     0.000,     0.000,     0.000,     0.000,   1,1
10011,'1 ',1,   1,   1,    32.023,     8.171,     0.000,     0.000,     0.000,     0.000,   1,1
10013,'1 ',1,   1,   1,    57.792,    30.065,     0.000,     0.000,     0.000,     0.000,   1,1
10015,'1 ',1,   1,   1,    25.013,    11.798,     0.000,     0.000,     0.000,     0.000,   1,1
10017,'1 ',1,   1,   1,    25.894,     7.161,     0.000,     0.000,     0.000,     0.000,   1,1
10018,'1 ',1,   1,   1,    24.242,     6.172,     0.000,     0.000,     0.000,     0.000,   1,1
10018,'2 ',1,   1,   1,     0.223,     0.021,     0.000,     0.000,     0.000,     0.000,   1,1
10020,'1 ',1,   1,   1,    53.352,     4.544,     0.000,     0.000,     0.000,     0.000,   1,1
10021,'1 ',1,   1,   1,     8.990,     2.126,     0.000,     0.000,     0.000,     0.000,   1,1
10022,'1 ',1,   1,   1,    43.956,    15.272,     0.000,     0.000,     0.000,     0.000,   1,1
10022,'2 ',1,   1,   1,     4.234,     0.645,     0.000,     0.000,     0.000,     0.000,   1,1
10024,'1 ',1,   1,   1,    43.956,     8.973,     0.000,     0.000,     0.000,     0.000,   1,1
10025,'1 ',1,   1,   1,    30.888,    12.761,     0.000,     0.000,     0.000,     0.000,   1,1
10026,'1 ',1,   1,   1,    18.394,     4.907,     0.000,     0.000,     0.000,     0.000,   1,1
10026,'2 ',1,   1,   1,     0.254,     0.066,     0.000,     0.000,     0.000,     0.000,   1,1
10028,'1 ',1,   1,   1,    32.227,    12.721,     0.000,     0.000,     0.000,     0.000,   1,1
10029,'1 ',1,   1,   1,    32.227,     1.850,     0.000,     0.000,     0.000,     0.000,   1,1
10031,'1 ',1,   1,   1,    33.756,     5.800,     0.000,     0.000,     0.000,     0.000,   1,1
10031,'2 ',1,   1,   1,     6.046,     1.382,     0.000,     0.000,     0.000,     0.000,   1,1
10032,'1 ',1,   1,   1,    33.756,     2.895,     0.000,     0.000,     0.000,     0.000,   1,1
10032,'2 ',1,   1,   1,     7.740,     2.781,     0.000,     0.000,     0.000,     0.000,   1,1
10033,'1 ',1,   1,   1,    59.046,     6.965,     0.000,     0.000,     0.000,     0.000,   1,1
10035,'1 ',1,   1,   1,    59.046,    42.646,     0.000,     0.000,     0.000,     0.000,   1,1
10037,'1 ',1,   1,   1,    58.289,    11.323,     0.000,     0.000,     0.000,     0.000,   1,1
10038,'1 ',1,   1,   1,    36.589,    13.167,     0.000,     0.000,     0.000,     0.000,   1,1
10040,'1 ',1,   1,   1,    36.589,    12.724,     0.000,     0.000,     0.000,     0.000,   1,1
10040,'2 ',1,   1,   1,     6.982,     0.970,     0.000,     0.000,     0.000,     0.000,   1,1
10041,'1 ',1,   1,   1,    20.076,     9.932,     0.000,     0.000,     0.000,     0.000,   1,1
10042,'1 ',1,   1,   1,    57.890,    10.648,     0.000,     0.000,     0.000,     0.000,   1,1
10042,'2 ',1,   1,   1,     1.356,     0.715,     0.000,     0.000,     0.000,     0.000,   1,1
10044,'1 ',1,   1,   1,    37.543,     1.739,     0.000,     0.000,     0.000,     0.000,   1,1
10045,'1 ',1,   1,   1,    21.919,    12.675,     0.000,     0.000,     0.000,     0.000,   1,1
10045,'2 ',1,   1,   1,     3.430,     0.236,     0.000,     0.000,     0.000,     0.000,   1,1
10047,'1 ',1,   1,   1,    45.760,     5.944,     0.000,     0.000,     0.000,     0.000,   1,1
10048,'1 ',1,   1,   1,    45.760,    10.245,     0.000,     0.000,     0.000,     0.000,   1,1
10052,'1 ',1,   1,   1,    17.506,     1.936,     0.000,     0.000,     0.000,     0.000,   1,1
10053,'1 ',1,   1,   1,    43.678,     4.563,     0.000,     0.000,     0.000,     0.000,   1,1
10054,'1 ',1,   1,   1,    35.338,    14.214,     0.000,     0.000,     0.000,     0.000,   1,1
10054,'2 ',1,   1,   1,     7.982,     1.912,     0.000,     0.000,     0.000,     0.000,   1,1
10055,'1 ',1,   1,   1,    17.568,     5.157,     0.000,     0.000,     0.000,     0.000,   1,1
10058,'1 ',1,   1,   1,    43.933,     8.137,     0.000,     0.000,     0.000,     0.000,   1,1
10060,'1 ',1,   1,   1,    43.933,    27.618,     0.000,     0.000,     0.000,     0.000,   1,1
10061,'1 ',1,   1,   1,    48.398,    18.171,     0.000,     0.000,     0.000,     0.000,   1,1
10061,'2 ',1,   1,   1,     2.676,     0.544,     0.000,     0.000,     0.000,     0.000,   1,1
10064,'1 ',1,   1,   1,    36.244,     9.303,     0.000,     0.000,     0.000,     0.000,   1,1
10065,'1 ',1,   1,   1,    36.244,     4.404,     0.000,     0.000,     0.000,     0.000,   1,1
10065,'2 ',1,   1,   1,    10.015,     2.413,     0.000,     0.000,     0.000,     0.000,   1,1
10069,'1 ',1,   1,   1,    58.855,    14.479,     0.000,     0.000,     0.000,     0.000,   1,1
10070,'1 ',1,   1,   1,    11.074,     0.158,     0.000,     0.000,     0.000,     0.000,   1,1
10071,'1 ',1,   1,   1,    38.370,    10.338,     0.000,     0.000,     0.000,     0.000,   1,1
10073,'1 ',1,   1,   1,    38.370,    20.183,     0.000,     0.000,     0.000,     0.000,   1,1
10075,'1 ',1,   1,   1,    14.719,     4.644,     0.000,     0.000,     0.000,     0.000,   1,1
10076,'1 ',1,   1,   1,    25.308,     2.810,     0.000,     0.000,     0.000,     0.000,   1,1
10076,'2 ',1,   1,   1,     2.657,     0.167,     0.000,     0.000,     0.000,     0.000,   1,1
10077,'1 ',1,   1,   1,    28.459,     7.927,     0.000,     0.000,     0.000,     0.000,   1,1
10079,'1 ',1,   1,   1,    55.860,    12.506,     0.000,     0.000,     0.000,     0.000,   1,1
10083,'1 ',1,   1,   1,    22.325,     8.766,     0.000,     0.000,     0.000,     0.000,   1,1
10085,'1 ',1,   1,   1,    37.704,     4.477,     0.000,     0.000,     0.000,     0.000,   1,1
10085,'2 ',1,   1,   1,     3.154,     1.397,     0.000,     0.000,     0.000,     0.000,   1,1
10087,'1 ',1,   1,   1,    10.867,     8.584,     0.000,     0.000,     0.000,     0.000,   1,1
10089,'1 ',1,   1,   1,    33.232,     4.188,     0.000,     0.000,     0.000,     0.000,   1,1
10090,'1 ',1,   1,   1,    33.232,     6.745,     0.000,     0.000,     0.000,     0.000,   1,1
10091,'1 ',1,   1,   1,    37.670,     4.702,     0.000,     0.000,     0.000,     0.000,   1,1
10092,'1 ',1,   1,   1,    31.460,     1.702,     0.000,     0.000,     0.000,     0.000,   1,1
10093,'1 ',1,   1,   1,    31.460,    11.155,     0.000,     0.000,     0.000,     0.000,   1,1
10096,'1 ',1,   1,   1,    18.019,     4.428,     0.000,     0.000,     0.000,     0.000,   1,1
10097,'1 ',1,   1,   1,    28.870,     4.988,     0.000,     0.000,     0.000,     0.000,   1,1
10097,'2 ',1,   1,   1,     2.148,     0.287,     0.000,     0.000,     0.000,     0.000,   1,1
10098,'1 ',1,   1,   1,    19.841,     5.602,     0.000,     0.000,     0.000,     0.000,   1,1
10102,'1 ',1,   1,   1,    33.876,     8.275,     0.000,     0.000,     0.000,     0.000,   1,1
10104,'1 ',1,   1,   1,    57.737,    17.101,     0.000,     0.000,     0.000,     0.000,   1,1
10106,'1 ',1,   1,   1,    49.030,    12.711,     0.000,     0.000,     0.000,     0.000,   1,1
10106,'2 ',1,   1,   1,     2.314,     0.931,     0.000,     0.000,     0.000,     0.000,   1,1
10107,'1 ',1,   1,   1,    26.947,     1.819,     0.000,     0.000,     0.000,     0.000,   1,1
10110,'1 ',1,   1,   1,    12.480,     4.313,     0.000,     0.000,     0.000,     0.000,   1,1
10112,'1 ',1,   1,   1,    11.201,     2.702,     0.000,     0.000,     0.000,     0.000,   1,1
10114,'1 ',1,   1,   1,    31.056,    13.533,     0.000,     0.000,     0.000,     0.000,   1,1
10115,'1 ',1,   1,   1,    31.056,    11.739,     0.000,     0.000,     0.000,     0.000,   1,1
10116,'1 ',1,   1,   1,    45.388,     3.346,     0.000,     0.000,     0.000,     0.000,   1,1
10116,'2 ',1,   1,   1,     2.556,     2.048,     0.000,     0.000,     0.000,     0.000,   1,1
10118,'1 ',1,   1,   1,    45.388,    21.632,     0.000,     0.000,     0.000,     0.000,   1,1
10122,'1 ',1,   1,   1,    35.434,    19.178,     0.000,     0.000,     0.000,     0.000,   1,1
10125,'1 ',1,   1,   1,    35.434,     7.059,     0.000,     0.000,     0.000,     0.000,   1,1
10128,'1 ',1,   1,   1,    44.887,    16.275,     0.000,     0.000,     0.000,     0.000,   1,1
10129,'1 ',1,   1,   1,    50.088,    14.745,     0.000,     0.000,     0.000,     0.000,   1,1
10130,'1 ',1,   1,   1,    50.088,    14.374,     0.000,     0.000,     0.000,     0.000,   1,1
10132,'1 ',1,   1,   1,    41.724,    12.377,     0.000,     0.000,     0.000,     0.000,   1,1
10134,'1 ',1,   1,   1,    71.028,     8.233,     0.000,     0.000,     0.000,     0.000,   1,1
10135,'1 ',1,   1,   1,    53.666,    10.692,     0.000,     0.000,     0.000,     0.000,   1,1
10135,'2 ',1,   1,   1,     7.346,     3.237,     0.000,     0.000,     0.000,     0.000,   1,1
10137,'1 ',1,   1,   1,    20.074,     5.147,     0.000,     0.000,     0.000,     0.000,   1,1
10138,'1 ',1,   1,   1,    38.052,     7.433,     0.000,     0.000,     0.000,     0.000,   1,1
10139,'1 ',1,   1,   1,    35.002,     8.777,     0.000,     0.000,     0.000,     0.000,   1,1
10140,'1 ',1,   1,   1,    16.073,     5.793,     0.000,     0.000,     0.000,     0.000,   1,1
10141,'1 ',1,   1,   1,    41.110,    16.664,     0.000,     0.000,     0.000,     0.000,   1,1
10142,'1 ',1,   1,   1,    41.110,     1.307,     0.000,     0.000,     0.000,     0.000,   1,1
10145,'1 ',1,   1,   1,    37.973,     9.238,     0.000,     0.000,     0.000,     0.000,   1,1
10146,'1 ',1,   1,   1,    37.973,     9.301,     0.000,     0.000,     0.000,     0.000,   1,1
10148,'1 ',1,   1,   1,    52.250,    24.722,     0.000,     0.000,     0.000,     0.000,   1,1
10150,'1 ',1,   1,   1,     7.990,     4.673,     0.000,     0.000,     0.000,     0.000,   1,1
10151,'1 ',1,   1,   1,    11.729,     1.245,     0.000,     0.000,     0.000,     0.000,   1,1
10153,'1 ',1,   1,   1,    35.347,     3.893,     0.000,     0.000,     0.000,     0.000,   1,1
10154,'1 ',1,   1,   1,    33.055,    13.109,     0.000,     0.000,     0.000,     0.000,   1,1
10156,'1 ',1,   1,   1,    33.055,     3.845,     0.000,     0.000,     0.000,     0.000,   1,1
10156,'2 ',1,   1,   1,     0.461,     0.177,     0.000,     0.000,     0.000,     0.000,   1,1
10157,'1 ',1,   1,   1,    32.333,    10.355,     0.000,     0.000,     0.000,     0.000,   1,1
10159,'1 ',1,   1,   1,    15.216,     4.813,     0.000,     0.000,     0.000,     0.000,   1,1
10160,'1 ',1,   1,   1,    55.260,    20.753,     0.000,     0.000,     0.000,     0.000,   1,1
10162,'1 ',1,   1,   1,    22.313,     3.984,     0.000,     0.000,     0.000,     0.000,   1,1
10162,'2 ',1,   1,   1,     3.288,     1.543,     0.000,     0.000,     0.000,     0.000,   1,1
10164,'1 ',1,   1,   1,    26.638,     6.537,     0.000,     0.000,     0.000,     0.000,   1,1
10166,'1 ',1,   1,   1,    47.724,     5.397,     0.000,     0.000,     0.000,     0.000,   1,1
10167,'1 ',1,   1,   1,    32.362,    10.771,     0.000,     0.000,     0.000,     0.000,   1,1
10168,'1 ',1,   1,   1,    32.362,    10.633,     0.000,     0.000,     0.000,     0.000,   1,1
10170,'1 ',1,   1,   1,    14.513,     0.924,     0.000,     0.000,     0.000,     0.000,   1,1
10171,'1 ',1,   1,   1,    51.864,     8.227,     0.000,     0.000,     0.000,     0.000,   1,1
10174,'1 ',1,   1,   1,    41.078,     5.548,     0.000,     0.000,     0.000,     0.000,   1,1
10175,'1 ',1,   1,   1,    41.078,    12.708,     0.000,     0.000,     0.000,     0.000,   1,1
10177,'1 ',1,   1,   1,    36.998,    12.283,     0.000,     0.000,     0.000,     0.000,   1,1
10178,'1 ',1,   1,   1,    36.998,     6.334,     0.000,     0.000,     0.000,     0.000,   1,1
10179,'1 ',1,   1,   1,    55.406,     4.585,     0.000,     0.000,     0.000,     0.000,   1,1
10180,'1 ',1,   1,   1,     1.459,     0.561,     0.000,     0.000,     0.000,     0.000,   1,1
10182,'1 ',1,   1,   1,    55.406,     4.799,     0.000,     0.000,     0.000,     0.000,   1,1
10183,'1 ',1,   1,   1,    35.700,     3.453,     0.000,     0.000,     0.000,     0.000,   1,1
10183,'2 ',1,   1,   1,    12.890,     1.798,     0.000,     0.000,     0.000,     0.000,   1,1
10185,'1 ',1,   1,   1,    68.064,    27.251,     0.000,     0.000,     0.000,     0.000,   1,1
10187,'1 ',1,   1,   1,    37.586,     7.215,     0.000,     0.000,     0.000,     0.000,   1,1
10188,'1 ',1,   1,   1,    51.737,    17.551,     0.000,     0.000,     0.000,     0.000,   1,1
10191,'1 ',1,   1,   1,    63.472,     6.050,     0.000,     0.000,     0.000,     0.000,   1,1
10193,'1 ',1,   1,   1,    63.472,    25.634,     0.000,     0.000,     0.000,     0.000,   1,1
10198,'1 ',1,   1,   1,    55.174,    29.095,     0.000,     0.000,     0.000,     0.000,   1,1
10199,'1 ',1,   1,   1,    25.498,    11.266,     0.000,     0.000,     0.000,     0.000,   1,1
10199,'2 ',1,   1,   1,     0.010,     0.002,     0.000,     0.000,     0.000,     0.000,   1,1
10200,'1 ',1,   1,   1,    54.842,    18.852,     0.000,     0.000,     0.000,     0.000,   1,1
10200,'2 ',1,   1,   1,     3.139,     0.711,     0.000,     0.000,     0.000,     0.000,   1,1
10201,'1 ',1,   1,   1,    45.343,     7.865,     0.000,     0.000,     0.000,     0.000,   1,1
10202,'1 ',1,   1,   1,    21.665,     3.342,     0.000,     0.000,     0.000,     0.000,   1,1
10204,'1 ',1,   1,   1,    12.667,     2.563,     0.000,     0.000,     0.000,     0.000,   1,1
10206,'1 ',1,   1,   1,    40.747,     8.433,     0.000,     0.000,     0.000,     0.000,   1,1
10207,'1 ',1,   1,   1,    40.747,     6.921,     0.000,     0.000,     0.000,     0.000,   1,1
10208,'1 ',1,   1,   1,    24.166,     6.604,     0.000,     0.000,     0.000,     0.000,   1,1
10209,'1 ',1,   1,   1,    81.391,    49.510,     0.000,     0.000,     0.000,     0.000,   1,1
10210,'1 ',1,   1,   1,    49.482,    10.281,     0.000,     0.000,     0.000,     0.000,   1,1
10211,'1 ',1,   1,   1,    49.482,    11.075,     0.000,     0.000,     0.000,     0.000,   1,1
10214,'1 ',1,   1,   1,    12.521,     3.353,     0.000,     0.000,     0.000,     0.000,   1,1
10215,'1 ',1,   1,   1,    36.385,     3.341,     0.000,     0.000,     0.000,     0.000,   1,1
10217,'1 ',1,   1,   1,    36.385,     3.126,     0.000,     0.000,     0.000,     0.000,   1,1
10218,'1 ',1,   1,   1,    30.667,     6.452,     0.000,     0.000,     0.000,     0.000,   1,1
10219,'1 ',1,   1,   1,    38.503,    11.159,     0.000,     0.000,     0.000,     0.000,   1,1
10221,'1 ',1,   1,   1,    38.503,     7.164,     0.000,     0.000,     0.000,     0.000,   1,1
10223,'1 ',1,   1,   1,     9.408,     2.941,     0.000,     0.000,     0.000,     0.000,   1,1
10225,'1 ',1,   1,   1,    35.593,    23.469,     0.000,     0.000,     0.000,     0.000,   1,1
10226,'1 ',1,   1,   1,    35.593,    19.118,     0.000,     0.000,     0.000,     0.000,   1,1
10227,'1 ',1,   1,   1,    47.246,    13.428,     0.000,     0.000,     0.000,     0.000,   1,1
10228,'1 ',1,   1,   1,    53.378,    19.974,     0.000,     0.000,     0.000,     0.000,   1,1
10229,'1 ',1,   1,   1,    35.448,     4.705,     0.000,     0.000,     0.000,     0.000,   1,1
10230,'1 ',1,   1,   1,    51.808,    10.713,     0.000,     0.000,     0.000,     0.000,   1,1
10231,'1 ',1,   1,   1,    51.808,    15.827,     0.000,     0.000,     0.000,     0.000,   1,1
10232,'1 ',1,   1,   1,    48.362,    11.430,     0.000,     0.000,     0.000,     0.000,   1,1
10234,'1 ',1,   1,   1,    37.638,     3.830,     0.000,     0.000,     0.000,     0.000,   1,1
10236,'1 ',1,   1,   1,    37.638,    13.282,     0.000,     0.000,     0.000,     0.000,   1,1
10237,'1 ',1,   1,   1,    33.479,     6.186,     0.000,     0.000,     0.000,     0.000,   1,1
10238,'1 ',1,   1,   1,    33.479,     8.366,     0.000,     0.000,     0.000,     0.000,   1,1
10239,'1 ',1,   1,   1,    50.014,     9.841,     0.000,     0.000,     0.000,     0.000,   1,1
10241,'1 ',1,   1,   1,    50.753,    10.164,     0.000,     0.000,     0.000,     0.000,   1,1
10243,'1 ',1,   1,   1,    45.672,     5.615,     0.000,     0.000,     0.000,     0.000,   1,1
10243,'2 ',1,   1,   1,     0.000,     0.000,     0.000,     0.000,     0.000,     0.000,   1,1
10244,'1 ',1,   1,   1,    34.460,     5.652,     0.000,     0.000,     0.000,     0.000,   1,1
10245,'1 ',1,   1,   1,    34.460,     8.681,     0.000,     0.000,     0.000,     0.000,   1,1
10247,'1 ',1,   1,   1,    24.415,     2.416,     0.000,     0.000,     0.000,     0.000,   1,1
10247,'2 ',1,   1,   1,    16.742,     1.528,     0.000,     0.000,     0.000,     0.000,   1,1
10248,'1 ',1,   1,   1,    43.930,    29.917,     0.000,     0.000,     0.000,     0.000,   1,1
10249,'1 ',1,   1,   1,    50.494,     5.585,     0.000,     0.000,     0.000,     0.000,   1,1
10250,'1 ',1,   1,   1,    57.012,    12.838,     0.000,     0.000,     0.000,     0.000,   1,1
10251,'1 ',1,   1,   1,    57.012,    22.377,     0.000,     0.000,     0.000,     0.000,   1,1
10252,'1 ',1,   1,   1,    31.106,     9.462,     0.000,     0.000,     0.000,     0.000,   1,1
10254,'1 ',1,   1,   1,    31.106,    19.533,     0.000,     0.000,     0.000,     0.000,   1,1
10257,'1 ',1,   1,   1,    24.336,    12.595,     0.000,     0.000,     0.000,     0.000,   1,1
10259,'1 ',1,   1,   1,    48.722,     8.037,     0.000,     0.000,     0.000,     0.000,   1,1
10260,'1 ',1,   1,   1,    30.307,    12.347,     0.000,     0.000,     0.000,     0.000,   1,1
10262,'1 ',1,   1,   1,    54.895,    12.073,     0.000,     0.000,     0.000,     0.000,   1,1
10263,'1 ',1,   1,   1,    35.690,     9.537,     0.000,     0.000,     0.000,     0.000,   1,1
10266,'1 ',1,   1,   1,    49.716,     2.392,     0.000,     0.000,     0.000,     0.000,   1,1
10267,'1 ',1,   1,   1,    16.111,     2.812,     0.000,     0.000,     0.000,     0.000,   1,1
10267,'2 ',1,   1,   1,     7.157,     1.301,     0.000,     0.000,     0.000,     0.000,   1,1
10269,'1 ',1,   1,   1,    53.466,    13.719,     0.000,     0.000,     0.000,     0.000,   1,1
10271,'1 ',1,   1,   1,    53.466,     7.162,     0.000,     0.000,     0.000,     0.000,   1,1
10272,'1 ',1,   1,   1,    55.093,     7.784,     0.000,     0.000,     0.000,     0.000,   1,1
10273,'1 ',1,   1,   1,    55.093,    20.536,     0.000,     0.000,     0.000,     0.000,   1,1
10274,'1 ',1,   1,   1,    24.571,     5.947,     0.000,     0.000,     0.000,     0.000,   1,1
10276,'1 ',1,   1,   1,    43.105,    11.407,     0.000,     0.000,     0.000,     0.000,   1,1
...
0 / END OF LOAD DATA, BEGIN FIXED SHUNT DATA
0 / END OF FIXED SHUNT DATA, BEGIN GENERATOR DATA
10683,'1 ',     0.000,     0.000,    61.160,    -7.800,1.04645,10680,   207.736,   0.00000,   0.28310,   0.00000,   0.00000,1.00000,0,  100.0,   159.270,    52.010,   1,1.0000,   0,1.0000,   0,1.0000,   0,1.0000,0, 1.0000
10684,'1 ',    85.288,    58.951,    61.158,    -7.804,1.04645,10680,   201.132,   0.00000,   0.27150,   0.00000,   0.00000,1.00000,1,  100.0,   159.267,    32.411,   1,1.0000,   0,1.0000,   0,1.0000,   0,1.0000,0, 1.0000
10685,'1 ',   138.645,    58.951,    61.158,    -7.804,1.04645,10680,   217.360,   0.00000,   0.32860,   0.00000,   0.00000,1.00000,1,  100.0,   159.267,    56.057,   1,1.0000,   0,1.0000,   0,1.0000,   0,1.0000,0, 1.0000
10686,'1 ',   115.540,     0.000,    61.158,    -7.804,1.04645,10680,   214.151,   0.00000,   0.33440,   0.00000,   0.00000,1.00000,0,  100.0,   159.267,    56.038,   1,1.0000,   0,1.0000,   0,1.0000,   0,1.0000,0, 1.0000
10687,'1 ',   120.630,    58.951,    61.158,    -7.804,1.04645,10680,   188.076,   0.00000,   0.40460,   0.00000,   0.00000,1.00000,1,  100.0,   159.267,    39.988,   1,1.0000,   0,1.0000,   0,1.0000,   0,1.0000,0, 1.0000
10688,'1 ',   109.928,    58.951,    61.158,    -7.804,1.04645,10680,   201.281,   0.00000,   0.27910,   0.00000,   0.00000,1.00000,1,  100.0,   159.267,    19.930,   1,1.0000,   0,1.0000,   0,1.0000,   0,1.0000,0, 1.0000
10689,'1 ',     9.015,     4.954,     4.954,    -0.632,1.05354,10681,    12.900,   0.00000,   0.23760,   0.00000,   0.00000,1.00000,1,  100.0,    12.900,     1.998,   1,1.0000,   0,1.0000,   0,1.0000,   0,1.0000,0, 1.0000
10691,'1 ',    59.722,    21.066,    21.066,   -14.242,1.05000,10690,    98.924,   0.00000,   1.00000,   0.00000,   0.00000,1.00000,1,  100.0,    98.900,    16.649,   1,1.0000,   0,1.0000,   0,1.0000,   0,1.0000,1, 1.0000
10694,'1 ',    23.015,     4.190,    13.440,    -1.715,1.04401,10693,    35.076,   0.00000,   0.22750,   0.00000,   0.00000,1.00000,1,  100.0,    35.000,     3.839,   1,1.0000,   0,1.0000,   0,1.0000,   0,1.0000,0, 1.0000
10695,'1 ',    25.548,     4.190,    13.440,    -1.715,1.04401,10693,    41.358,   0.00000,   0.39590,   0.00000,   0.00000,1.00000,1,  100.0,    35.000,    13.697,   1,1.0000,   0,1.0000,   0,1.0000,   0,1.0000,0, 1.0000
10699,'1 ',    79.420,   -14.500,    21.450,   -14.500,1.02508,10697,   120.641,   0.00000,   1.00000,   0.00000,   0.00000,1.00000,1,  100.0,   100.700,    13.150,   1,1.0000,   0,1.0000,   0,1.0000,   0,1.0000,1, 1.0000
10703,'1 ',   136.300,    25.921,    29.032,   -19.627,1.04300,10702,   174.639,   0.00000,   1.00000,   0.00000,   0.00000,1.00000,1,  100.0,   136.300,    43.063,   1,1.0000,   0,1.0000,   0,1.0000,   0,1.0000,1, 1.0000
10710,'1 ',   171.160,   -10.610,    83.170,   -10.610,1.02606,10707,   238.479,   0.00000,   0.28070,   0.00000,   0.00000,1.00000,1,  100.0,   216.600,    77.750,   1,1.0000,   0,1.0000,   0,1.0000,   0,1.0000,0, 1.0000
10711,'1 ',   189.673,   -10.613,    83.174,   -10.613,1.02606,10707,   219.830,   0.00000,   0.15870,   0.00000,   0.00000,1.00000,1,  100.0,   216.600,    69.157,   1,1.0000,   0,1.0000,   0,1.0000,   0,1.0000,0, 1.0000
10712,'1 ',   135.950,   -10.610,    83.170,   -10.610,1.02606,10707,   219.917,   0.00000,   0.15020,   0.00000,   0.00000,1.00000,1,  100.0,   216.600,    52.060,   1,1.0000,   0,1.0000,   0,1.0000,   0,1.0000,0, 1.0000
10713,'1 ',   189.370,   -10.610,    83.170,   -10.610,1.02606,10707,   259.927,   0.00000,   0.27080,   0.00000,   0.00000,1.00000,1,  100.0,   216.600,    81.030,   1,1.0000,   0,1.0000,   0,1.0000,   0,1.0000,0, 1.0000
10714,'1 ',     0.000,     0.000,    83.170,   -10.610,1.02606,10707,   235.854,   0.00000,   0.30030,   0.00000,   0.00000,1.00000,0,  100.0,   216.600,    42.730,   1,1.0000,   0,1.0000,   0,1.0000,   0,1.0000,0, 1.0000
10715,'1 ',   172.430,   -10.613,    83.174,   -10.613,1.02606,10707,   279.750,   0.00000,   0.15300,   0.00000,   0.00000,1.00000,1,  100.0,   216.600,    92.198,   1,1.0000,   0,1.0000,   0,1.0000,   0,1.0000,0, 1.0000
10722,'1 ',    77.841,     0.000,    40.282,    -5.140,1.04400,10717,   131.400,   0.00000,   0.24080,   0.00000,   0.00000,1.00000,0,  100.0,   104.900,    32.777,   1,1.0000,   0,1.0000,   0,1.0000,   0,1.0000,0, 1.0000
10723,'1 ',    82.249,    40.282,    40.282,    -5.140,1.04480,10717,   152.844,   0.00000,   0.29530,   0.00000,   0.00000,1.00000,1,  100.0,   104.900,    41.806,   1,1.0000,   0,1.0000,   0,1.0000,   0,1.0000,0, 1.0000
10724,'1 ',   104.900,    40.282,    40.282,    -5.140,1.04480,10717,   115.759,   0.00000,   0.24780,   0.00000,   0.00000,1.00000,1,  100.0,   104.900,    11.526,   1,1.0000,   0,1.0000,   0,1.0000,   0,1.0000,0, 1.0000
10725,'1 ',    71.290,    40.282,    40.282,    -5.140,1.04480,10717,   116.266,   0.00000,   0.28440,   0.00000,   0.00000,1.00000,1,  100.0,   104.900,    16.170,   1,1.0000,   0,1.0000,   0,1.0000,   0,1.0000,0, 1.0000
10726,'1 ',    71.081,    40.282,    40.282,    -5.140,1.04480,10717,   106.558,   0.00000,   0.34500,   0.00000,   0.00000,1.00000,1,  100.0,   104.900,    31.860,   1,1.0000,   0,1.0000,   0,1.0000,   0,1.0000,0, 1.0000
10727,'1 ',    70.160,     0.000,    40.282,    -5.140,1.04400,10717,   122.586,   0.00000,   0.32620,   0.00000,   0.00000,1.00000,0,  100.0,   104.900,    28.254,   1,1.0000,   0,1.0000,   0,1.0000,   0,1.0000,0, 1.0000
10728,'1 ',    23.813,    -1.370,    10.733,    -1.370,1.01773,    0,    32.267,   0.00000,   0.26460,   0.00000,   0.00000,1.00000,1,  100.0,    27.950,    13.760,   1,1.0000,   0,1.0000,   0,1.0000,   0,1.0000,0, 1.0000
10728,'2 ',     0.000,     0.000,    10.730,    -1.370,1.01773,    0,    35.803,   0.00000,   0.31080,   0.00000,   0.00000,1.00000,0,  100.0,    27.950,     6.980,   1,1.0000,   0,1.0000,   0,1.0000,   0,1.0000,0, 1.0000
10729,'1 ',     0.000,     0.000,    10.730,    -1.370,1.01332,    0,    27.950,   0.00000,   0.33930,   0.00000,   0.00000,1.00000,0,  100.0,    27.950,     6.030,   1,1.0000,   0,1.0000,   0,1.0000,   0,1.0000,0, 1.0000
10729,'2 ',    20.459,    -1.370,    10.733,    -1.370,1.01332,    0,    32.330,   0.00000,   0.28340,   0.00000,   0.00000,1.00000,1,  100.0,    27.950,    13.481,   1,1.0000,   0,1.0000,   0,1.0000,   0,1.0000,0, 1.0000
10731,'1 ',     0.000,     0.000,     6.500,    -0.830,1.01724,    0,    18.621,   0.00000,   0.32770,   0.00000,   0.00000,1.00000,0,  100.0,    16.920,     5.640,   1,1.0000,   0,1.0000,   0,1.0000,   0,1.0000,0, 1.0000
10731,'2 ',    14.989,     0.000,     6.497,    -0.829,1.01724,    0,    21.247,   0.00000,   0.19700,   0.00000,   0.00000,1.00000,0,  100.0,    16.920,     6.864,   1,1.0000,   0,1.0000,   0,1.0000,   0,1.0000,0, 1.0000
10731,'3 ',    16.920,     0.000,     6.497,    -0.829,1.01724,    0,    16.920,   0.00000,   0.35700,   0.00000,   0.00000,1.00000,0,  100.0,    16.920,     3.042,   1,1.0000,   0,1.0000,   0,1.0000,   0,1.0000,0, 1.0000
10731,'4 ',     9.830,    -0.830,     6.500,    -0.830,1.01724,    0,    19.886,   0.00000,   0.19020,   0.00000,   0.00000,1.00000,1,  100.0,    16.920,     4.010,   1,1.0000,   0,1.0000,   0,1.0000,   0,1.0000,0, 1.0000
10731,'5 ',    12.369,     0.000,     6.497,    -0.829,1.01724,    0,    20.513,   0.00000,   0.25320,   0.00000,   0.00000,1.00000,0,  100.0,    16.920,     4.157,   1,1.0000,   0,1.0000,   0,1.0000,   0,1.0000,0, 1.0000
10737,'1 ',   158.503,    81.007,    81.007,   -17.666,1.04600,10734,   193.294,   0.00000,   0.19960,   0.00000,   0.00000,1.00000,1,  100.0,   159.150,    72.550,   1,1.0000,   0,1.0000,   0,1.0000,   0,1.0000,0, 1.0000
10738,'1 ',   158.503,    81.007,    81.007,   -17.666,1.04600,10734,   195.427,   0.00000,   0.17550,   0.00000,   0.00000,1.00000,1,  100.0,   159.150,    58.544,   1,1.0000,   0,1.0000,   0,1.0000,   0,1.0000,0, 1.0000
10742,'1 ',    80.000,    -3.920,    30.720,    -3.920,1.02273,10739,    96.139,   0.00000,   0.36610,   0.00000,   0.00000,1.00000,1,  100.0,    80.000,    14.847,   1,1.0000,   0,1.0000,   0,1.0000,   0,1.0000,0, 1.0000
10743,'1 ',    68.983,     0.000,    30.720,    -3.920,1.02273,10739,    93.176,   0.00000,   0.22950,   0.00000,   0.00000,1.00000,0,  100.0,    80.000,    31.972,   1,1.0000,   0,1.0000,   0,1.0000,   0,1.0000,0, 1.0000
10744,'1 ',    64.230,    -3.920,    30.720,    -3.920,1.02273,10739,   106.354,   0.00000,   0.28620,   0.00000,   0.00000,1.00000,1,  100.0,    80.000,    33.900,   1,1.0000,   0,1.0000,   0,1.0000,   0,1.0000,0, 1.0000
10746,'1 ',    66.350,   -12.960,    19.170,   -12.960,1.00041,10745,    98.257,   0.00000,   1.00000,   0.00000,   0.00000,1.00000,1,  100.0,    90.000,    19.930,   1,1.0000,   0,1.0000,   0,1.0000,   0,1.0000,1, 1.0000
10750,'1 ',   409.370,   -20.060,   157.200,   -20.060,1.00929,10747,   498.653,   0.00000,   0.26510,   0.00000,   0.00000,1.00000,1,  100.0,   409.370,   146.970,   1,1.0000,   0,1.0000,   0,1.0000,   0,1.0000,0, 1.0000
10751,'1 ',   201.055,     0.000,   157.197,   -20.059,1.04900,10747,   454.462,   0.00000,   0.43860,   0.00000,   0.00000,1.00000,0,  100.0,   409.367,    47.403,   1,1.0000,   0,1.0000,   0,1.0000,   0,1.0000,0, 1.0000
10752,'1 ',   293.048,   -20.059,   157.197,   -20.059,1.00929,10747,   417.454,   0.00000,   0.25270,   0.00000,   0.00000,1.00000,1,  100.0,   409.367,    60.564,   1,1.0000,   0,1.0000,   0,1.0000,   0,1.0000,0, 1.0000
10753,'1 ',   302.576,     0.000,   157.197,   -20.059,1.04900,10747,   459.340,   0.00000,   0.27970,   0.00000,   0.00000,1.00000,0,  100.0,   409.367,    49.620,   1,1.0000,   0,1.0000,   0,1.0000,   0,1.0000,0, 1.0000
10754,'1 ',   323.104,   -20.059,   157.197,   -20.059,1.00929,10747,   487.044,   0.00000,   0.27870,   0.00000,   0.00000,1.00000,1,  100.0,   409.367,   185.413,   1,1.0000,   0,1.0000,   0,1.0000,   0,1.0000,0, 1.0000
10755,'1 ',   333.930,   -20.060,   157.200,   -20.060,1.00929,10747,   548.585,   0.00000,   0.23210,   0.00000,   0.00000,1.00000,1,  100.0,   409.370,   100.400,   1,1.0000,   0,1.0000,   0,1.0000,   0,1.0000,0, 1.0000
10757,'1 ',    40.500,    -1.984,    15.552,    -1.984,1.02312,    0,    45.683,   0.00000,   0.33800,   0.00000,   0.00000,1.00000,1,  100.0,    40.500,     9.001,   1,1.0000,   0,1.0000,   0,1.0000,   0,1.0000,0, 1.0000
10757,'2 ',    40.500,    -1.984,    15.552,    -1.984,1.02312,    0,    47.329,   0.00000,   0.22920,   0.00000,   0.00000,1.00000,1,  100.0,    40.500,     6.354,   1,1.0000,   0,1.0000,   0,1.0000,   0,1.0000,0, 1.0000
10757,'3 ',    28.941,    -1.984,    15.552,    -1.984,1.02312,    0,    57.718,   0.00000,   0.23500,   0.00000,   0.00000,1.00000,1,  100.0,    40.500,     7.057,   1,1.0000,   0,1.0000,   0,1.0000,   0,1.0000,0, 1.0000
10757,'4 ',     0.000,     0.000,    15.550,    -1.980,1.02312,    0,    56.801,   0.00000,   0.35740,   0.00000,   0.00000,1.00000,0,  100.0,    40.500,     9.580,   1,1.0000,   0,1.0000,   0,1.0000,   0,1.0000,0, 1.0000
10758,'1 ',    34.493,     0.000,    21.350,    -2.724,1.04000,    0,    64.737,   0.00000,   0.32380,   0.00000,   0.00000,1.00000,0,  100.0,    55.600,    19.419,   1,1.0000,   0,1.0000,   0,1.0000,   0,1.0000,0, 1.0000
10758,'2 ',    55.600,    21.350,    21.350,    -2.724,1.04000,    0,    63.990,   0.00000,   0.38630,   0.00000,   0.00000,1.00000,1,  100.0,    55.600,    18.310,   1,1.0000,   0,1.0000,   0,1.0000,   0,1.0000,0, 1.0000
10760,'1 ',    46.287,     0.000,     0.000,     0.000,1.04000,    0,    69.122,   0.00000,   1.00000,   0.00000,   0.00000,1.00000,0,  100.0,    61.500,    13.060,   1,1.0000,   0,1.0000,   0,1.0000,   0,1.0000,0, 1.0000
10768,'1 ',   212.508,    56.828,    56.828,   -38.419,1.04400,10766,   301.555,   0.00000,   1.00000,   0.00000,   0.00000,1.00000,1,  100.0,   266.800,   122.148,   1,1.0000,   0,1.0000,   0,1.0000,   0,1.0000,1, 1.0000
10771,'1 ',    51.825,    19.901,    19.901,    -2.539,1.04500,10769,    72.351,   0.00000,   0.14850,   0.00000,   0.00000,1.00000,1,  100.0,    51.825,    16.668,   1,1.0000,   0,1.0000,   0,1.0000,   0,1.0000,0, 1.0000
10772,'1 ',    41.623,    19.901,    19.901,    -2.539,1.04500,10769,    52.676,   0.00000,   0.15810,   0.00000,   0.00000,1.00000,1,  100.0,    51.825,    22.206,   1,1.0000,   0,1.0000,   0,1.0000,   0,1.0000,0, 1.0000
10773,'1 ',     0.000,     0.000,    19.900,    -2.540,1.02410,10769,    66.706,   0.00000,   0.43760,   0.00000,   0.00000,1.00000,0,  100.0,    51.820,    20.880,   1,1.0000,   0,1.0000,   0,1.0000,   0,1.0000,0, 1.0000
10774,'1 ',    41.383,    19.901,    19.901,    -2.539,1.04500,10769,    57.608,   0.00000,   0.19640,   0.00000,   0.00000,1.00000,1,  100.0,    51.825,    19.729,   1,1.0000,   0,1.0000,   0,1.0000,   0,1.0000,0, 1.0000
10776,'1 ',     0.000,     0.000,     0.000,     0.000,1.00601,10775,    32.065,   0.00000,   1.00000,   0.00000,   0.00000,1.00000,0,  100.0,    28.000,     3.770,   1,1.0000,   0,1.0000,   0,1.0000,   0,1.0000,0, 1.0000
10776,'2 ',    14.321,     0.000,     0.000,     0.000,1.00601,10775,    23.976,   0.00000,   1.00000,   0.00000,   0.00000,1.00000,1,  100.0,    20.000,     6.145,   1,1.0000,   0,1.0000,   0,1.0000,   0,1.0000,0, 1.0000
10778,'1 ',     8.028,    -0.490,     3.840,    -0.490,1.01920,    0,    11.563,   0.00000,   0.35560,   0.00000,   0.00000,1.00000,1,  100.0,    10.000,     3.136,   1,1.0000,   0,1.0000,   0,1.0000,   0,1.0000,0, 1.0000
10778,'2 ',    14.800,    -0.730,     5.680,    -0.730,1.01920,    0,    14.942,   0.00000,   0.42800,   0.00000,   0.00000,1.00000,1,  100.0,    14.800,     5.130,   1,1.0000,   0,1.0000,   0,1.0000,   0,1.0000,0, 1.0000
10782,'1 ',    13.432,     0.000,     0.000,     0.000,1.01434,10781,    27.319,   0.00000,   1.00000,   0.00000,   0.00000,1.00000,1,  100.0,    18.333,     6.397,   1,1.0000,   0,1.0000,   0,1.0000,   0,1.0000,0, 1.0000
10782,'2 ',    14.651,     0.000,     0.000,     0.000,1.01434,10781,    18.632,   0.00000,   1.00000,   0.00000,   0.00000,1.00000,1,  100.0,    18.333,     7.371,   1,1.0000,   0,1.0000,   0,1.0000,   0,1.0000,0, 1.0000
10783,'1 ',    13.243,     0.000,     0.000,     0.000,1.01434,10781,    22.108,   0.00000,   1.00000,   0.00000,   0.00000,1.00000,1,  100.0,    18.333,     3.485,   1,1.0000,   0,1.0000,   0,1.0000,   0,1.0000,0, 1.0000
10784,'1 ',    17.213,     0.000,     0.000,     0.000,1.01920,    0,    43.835,   0.00000,   1.00000,   0.00000,   0.00000,1.00000,1,  100.0,    39.400,     5.248,   1,1.0000,   0,1.0000,   0,1.0000,   0,1.0000,0, 1.0000
10784,'2 ',    42.830,     0.000,     0.000,     0.000,1.01920,    0,    64.640,   0.00000,   1.00000,   0.00000,   0.00000,1.00000,1,  100.0,    58.200,    15.390,   1,1.0000,   0,1.0000,   0,1.0000,   0,1.0000,0, 1.0000
10785,'1 ',    39.400,     0.000,     0.000,     0.000,1.01920,    0,    44.461,   0.00000,   1.00000,   0.00000,   0.00000,1.00000,1,  100.0,    39.400,     6.690,   1,1.0000,   0,1.0000,   0,1.0000,   0,1.0000,0, 1.0000
10785,'2 ',    31.080,     0.000,     0.000,     0.000,1.01920,    0,    49.642,   0.00000,   1.00000,   0.00000,   0.00000,1.00000,1,  100.0,    39.400,    16.120,   1,1.0000,   0,1.0000,   0,1.0000,   0,1.0000,0, 1.0000
10791,'1 ',    58.197,    22.429,    22.429,   -15.163,1.04040,10789,   136.186,   0.00000,   1.00000,   0.00000,   0.00000,1.00000,1,  100.0,   105.300,    19.808,   1,1.0000,   0,1.0000,   0,1.0000,   0,1.0000,1, 1.0000
10796,'1 ',     0.000,     0.000,    21.230,    -4.630,1.04300,10794,    55.567,   0.00000,   0.12090,   0.00000,   0.00000,1.00000,0,  100.0,    41.700,     7.420,   1,1.0000,   0,1.0000,   0,1.0000,   0,1.0000,0, 1.0000
10797,'1 ',    41.531,    10.614,    21.225,    -4.629,1.04300,10794,    62.550,   0.00000,   0.15000,   0.00000,   0.00000,1.00000,1,  100.0,    41.700,     8.831,   1,1.0000,   0,1.0000,   0,1.0000,   0,1.0000,0, 1.0000
10797,'2 ',    41.531,    10.614,    21.225,    -4.629,1.04300,10794,    41.700,   0.00000,   0.24680,   0.00000,   0.00000,1.00000,1,  100.0,    41.700,    16.642,   1,1.0000,   0,1.0000,   0,1.0000,   0,1.0000,0, 1.0000
10798,'1 ',    41.531,    -4.630,    21.230,    -4.630,1.02704,10795,    41.700,   0.00000,   0.14930,   0.00000,   0.00000,1.00000,1,  100.0,    41.700,    13.810,   1,1.0000,   0,1.0000,   0,1.0000,   0,1.0000,0, 1.0000
10800,'1 ',    82.340,   -14.083,    20.831,   -14.083,1.04000,    0,   129.147,   0.00000,   1.00000,   0.00000,   0.00000,1.00000,1,  100.0,    97.800,    28.855,   1,1.0000,   0,1.0000,   0,1.0000,   0,1.0000,1, 1.0000
10802,'1 ',    10.220,     4.608,     4.608,    -0.588,1.04027,10801,    14.150,   0.00000,   0.20470,   0.00000,   0.00000,1.00000,1,  100.0,    12.000,     5.954,   1,1.0000,   0,1.0000,   0,1.0000,   0,1.0000,0, 1.0000
10803,'1 ',    12.000,     4.608,     4.608,    -0.588,1.04027,10801,    12.120,   0.00000,   0.37400,   0.00000,   0.00000,1.00000,1,  100.0,    12.000,     4.135,   1,1.0000,   0,1.0000,   0,1.0000,   0,1.0000,0, 1.0000
10806,'1 ',    34.738,    -2.234,    17.510,    -2.234,1.02214,10805,    52.420,   0.00000,   0.31290,   0.00000,   0.00000,1.00000,1,  100.0,    45.600,    17.179,   1,1.0000,   0,1.0000,   0,1.0000,   0,1.0000,0, 1.0000
10806,'2 ',    42.973,    -2.234,    17.510,    -2.234,1.02214,10805,    61.483,   0.00000,   0.42380,   0.00000,   0.00000,1.00000,1,  100.0,    45.600,    17.540,   1,1.0000,   0,1.0000,   0,1.0000,   0,1.0000,0, 1.0000
10807,'1 ',     0.000,     0.000,    17.510,    -2.230,1.02214,10805,    68.400,   0.00000,   0.38590,   0.00000,   0.00000,1.00000,0,  100.0,    45.600,    21.010,   1,1.0000,   0,1.0000,   0,1.0000,   0,1.0000,0, 1.0000
10807,'2 ',    30.260,    -2.230,    17.510,    -2.230,1.02214,10805,    51.245,   0.00000,   0.34660,   0.00000,   0.00000,1.00000,1,  100.0,    45.600,    14.390,   1,1.0000,   0,1.0000,   0,1.0000,   0,1.0000,0, 1.0000
10811,'1 ',  1195.124,   296.980,   441.600,   -98.400,1.04200,10808,  1400.378,   0.00000,   0.28550,   0.00000,   0.00000,1.00000,1,  100.0,  1200.000,   469.132,   1,1.0000,   0,1.0000,   0,1.0000,   0,1.0000,0, 1.0000
10813,'1 ',    56.320,    -3.280,    25.730,    -3.280,1.01528,    0,    74.504,   0.00000,   0.43620,   0.00000,   0.00000,1.00000,1,  100.0,    67.000,    17.860,   1,1.0000,   0,1.0000,   0,1.0000,   0,1.0000,0, 1.0000
10813,'2 ',    67.000,     0.000,    25.728,    -3.283,1.01528,    0,    91.699,   0.00000,   0.31910,   0.00000,   0.00000,1.00000,0,  100.0,    67.000,    30.368,   1,1.0000,   0,1.0000,   0,1.0000,   0,1.0000,0, 1.0000
10817,'1 ',    50.700,     0.000,     0.000,     0.000,1.04000,    0,    68.964,   0.00000,   1.00000,   0.00000,   0.00000,1.00000,1,  100.0,    50.700,    22.040,   1,1.0000,   0,1.0000,   0,1.0000,   0,1.0000,0, 1.0000
10818,'1 ',     6.031,     0.000,     0.000,     0.000,1.04000,    0,     7.200,   0.00000,   1.00000,   0.00000,   0.00000,1.00000,0,  100.0,     7.200,     2.329,   1,1.0000,   0,1.0000,   0,1.0000,   0,1.0000,0, 1.0000
...